
**** 09/21/21 11:03:35 ******* PSpice 17.4.0 (Nov 2018) ******* ID# 0 ********

 ** Profile: "SCHEMATIC1-test1"  [ C:\Modeling\TLV9032_ti\tlv9032-pspicefiles\schematic1\test1.sim ] 


 ****     CIRCUIT DESCRIPTION


******************************************************************************




** Creating circuit file "test1.cir" 
** WARNING: THIS AUTOMATICALLY GENERATED FILE MAY BE OVERWRITTEN BY SUBSEQUENT SIMULATIONS

*Libraries: 
* Profile Libraries :
* Local Libraries :
.LIB "../../../tlv9032.lib" 
* From [PSPICE NETLIST] section of C:\SPB_DATA\cdssetup\OrCAD_PSpice\17.4.0\PSpice.ini file:
.lib "nom.lib" 

*Analysis directives: 
.TRAN  0 30u 0 
.OPTIONS ADVCONV
.PROBE64 V(alias(*)) I(alias(*)) W(alias(*)) D(alias(*)) NOISE(alias(*)) 
.INC "..\SCHEMATIC1.net" 



**** INCLUDING SCHEMATIC1.net ****
* source TLV9032
.EXTERNAL INPUT V+
.EXTERNAL INPUT IN+
.EXTERNAL INPUT IN-
.EXTERNAL INPUT OUT
.EXTERNAL INPUT V-
X_U1         IN+ IN- V+ V- OUT TLV9032
V_VINN2         V+ 0 5
V_VINN         IN- 0 2.5
V_V1         IN+ 0  
+SIN 2.5 200m 100k 0 0 0
V_VINN3         V- 0 0

**** RESUMING test1.cir ****
.END

**** 09/21/21 11:03:35 ******* PSpice 17.4.0 (Nov 2018) ******* ID# 0 ********

 ** Profile: "SCHEMATIC1-test1"  [ C:\Modeling\TLV9032_ti\tlv9032-pspicefiles\schematic1\test1.sim ] 


 ****     Voltage Controlled Switch MODEL PARAMETERS


******************************************************************************




               X_U1.X_U5.X_SMID._SMID 
         RON    1            
        ROFF    1.000000E+12 
         VON    0            
        VOFF    1            


               X_U1.X_U5.X_SHIZ._SHIZ 
         RON    1            
        ROFF    1.000000E+12 
         VON    0            
        VOFF    1            


               X_U1.X_U5.X_SVOL._SVOL 
         RON    1            
        ROFF    1.000000E+12 
         VON    0            
        VOFF    1            


               X_U1.X_U5.X_SVOH._SVOH 
         RON    1            
        ROFF    1.000000E+12 
         VON    1            
        VOFF    0            


**** 09/21/21 11:03:35 ******* PSpice 17.4.0 (Nov 2018) ******* ID# 0 ********

 ** Profile: "SCHEMATIC1-test1"  [ C:\Modeling\TLV9032_ti\tlv9032-pspicefiles\schematic1\test1.sim ] 


 ****     INITIAL TRANSIENT SOLUTION       TEMPERATURE =   27.000 DEG C


******************************************************************************



 NODE   VOLTAGE     NODE   VOLTAGE     NODE   VOLTAGE     NODE   VOLTAGE


(   V+)    5.0000  (   V-)    0.0000  (  IN+)    2.5000  (  IN-)    2.5000      

(  OUT)    5.0000  (X_U1.N21103)    4.9505               (X_U1.N21168)    0.0000

(X_U1.N21237)    0.0000               (X_U1.IN+BUFF)    2.5000                  

(X_U1.IN-BUFF)    2.5000              (X_U1.N785573)    2.5003                  

(X_U1.N786723)    0.0000              (X_U1.N843683)    5.0000                  

(X_U1.N852568)    0.0000              (X_U1.N862087)    2.4752                  

(X_U1.N862127)    4.9505              (X_U1.X_U3.VH)    0.0000                  

(X_U1.X_U5.1V)    1.0000              (X_U1.X_U7.1V)    1.0000                  

(X_U1.X_U3.OUT)    5.0000             (X_U1.X_U5.MID)    2.5000                 

(X_U1.V+_BUFFER)    5.0000            (X_U1.V-_BUFFER)    0.0000                

(X_U1.X_U3.VMID)    2.5000            (X_U1.X_U2.N20155)    5.7000              

(X_U1.X_U2.N20415)    -.2000          (X_U1.X_U2.N20531)    0.0000              

(X_U1.X_U2.N20539)    -.2000          (X_U1.X_U2.N20826)    0.0000              

(X_U1.X_U2.N20833)    0.0000          (X_U1.X_U2.N20840)    0.0000              

(X_U1.X_U3.INNNEW)    2.5000          (X_U1.X_U4.N03175)    2.4752              

(X_U1.X_U5.X_U3.3)    5.0000          (X_U1.X_U5.X_U8.6)    0.0000              

(X_U1.X_U2.N202710)    5.7000         (X_U1.X_U2.X_U24.6)    0.0000             

(X_U1.X_U5.N774212)    5.0000         (X_U1.X_U5.N774290)    4.0000             

(X_U1.X_U5.N778484)    5.0000         (X_U1.X_U5.N778496)    5.0000             

(X_U1.X_U5.N789513)    1.0000         (X_U1.X_U5.N850209)    5.0000             

(X_U1.X_U5.X_U10.4)    1.0000         (X_U1.X_U7.N785597)    5.5000             

(X_U1.X_U7.N785687)    5.0000         (X_U1.X_U7.N785701)    0.0000             

(X_U1.X_U7.N785811)    0.0000         (X_U1.X_U7.N785913)    1.6400             

(X_U1.X_U7.N786085)    1.5000         (X_U1.X_U7.X_U17.4)    0.0000             

(X_U1.X_U5.N8552942)    5.0000        (X_U1.X_U2.X_U1.OUT2)    0.0000           

(X_U1.X_U5.X_U7.VMID)    2.5000       (X_U1.X_U7.X_U5.OUT2)    0.0000           

(X_U1.X_U2.X_U21.OUT2)    0.0000      (X_U1.X_U2.X_U22.OUT2)    0.0000          

(X_U1.X_U2.X_U23.OUT2)    0.0000      (X_U1.X_U7.X_U13.OUT1)    5.0000          

(X_U1.X_U7.X_U15.OUT2)    0.0000      (X_U1.X_U7.X_U16.OUT2)    0.0000          

(X_U1.X_U5.CONTROL_HIZ)    0.0000     (X_U1.X_U5.CONTROL_MID)    1.0000     




    VOLTAGE SOURCE CURRENTS
    NAME         CURRENT

    V_VINN2     -1.600E-05
    V_VINN      -7.500E-12
    V_V1        -7.500E-12
    V_VINN3      1.600E-05
    X_U1.V_VOS   0.000E+00
    X_U1.V_VHYST   0.000E+00
    X_U1.X_U2.V_VCMNP   0.000E+00
    X_U1.X_U2.V_VCMPN   0.000E+00
    X_U1.X_U2.V_VCMPP   0.000E+00
    X_U1.X_U2.V_VCMNN   0.000E+00
    X_U1.X_U5.V_VLOGIC   0.000E+00
    X_U1.X_U5.V_V1  -2.002E-09
    X_U1.X_U7.V_VLOGIC   0.000E+00
    X_U1.X_U7.V_VS_MIN_SET1   0.000E+00
    X_U1.X_U7.V_VS_MIN_SET   0.000E+00
    X_U1.X_U7.V_VS_MAX_SET   0.000E+00

    TOTAL POWER DISSIPATION   8.00E-05  WATTS



          JOB CONCLUDED

**** 09/21/21 11:03:35 ******* PSpice 17.4.0 (Nov 2018) ******* ID# 0 ********

 ** Profile: "SCHEMATIC1-test1"  [ C:\Modeling\TLV9032_ti\tlv9032-pspicefiles\schematic1\test1.sim ] 


 ****     JOB STATISTICS SUMMARY


******************************************************************************



  License check-out time            =       37.11
  Total job time (using Solver 1)   =         .06
