Circuit: * source TLV9032

Fatal Error: No analysis request found.
