Circuit: * C:\Users\amodh\OneDrive\Desktop\working_memory notes\SPICEckts\I_controlled_I_source.asc

Direct Newton iteration for .op point succeeded.

Date: Thu Jun 06 21:37:50 2024
Total elapsed time: 0.097 seconds.

tnom = 27
temp = 27
method = modified trap
totiter = 2085
traniter = 2082
tranpoints = 1042
accept = 1042
rejected = 0
matrix size = 16
fillins = 9
solver = Normal
Matrix Compiler1: 1.04 KB object code size  0.2/0.1/[0.1]
Matrix Compiler2: 1.42 KB object code size  0.1/0.5/[0.1]

