Circuit: * Python Script Created Netlist File

