Circuit: * C:\Users\amodh\OneDrive\Desktop\working_memory notes\SPICEckts\LIFtest_mod.asc

Ignoring BSIM parameter XL
Ignoring BSIM parameter XW
Ignoring BSIM parameter XL
Ignoring BSIM parameter XW
Warning: Pd = 0 is less than W.
Warning: Ps = 0 is less than W.
Warning: Pd = 0 is less than W.
Warning: Ps = 0 is less than W.
Warning: Pd = 0 is less than W.
Warning: Ps = 0 is less than W.
Warning: Pd = 0 is less than W.
Warning: Ps = 0 is less than W.
Warning: Pd = 0 is less than W.
Warning: Ps = 0 is less than W.
Warning: Pd = 0 is less than W.
Warning: Ps = 0 is less than W.
Warning: Pd = 0 is less than W.
Warning: Ps = 0 is less than W.
Direct Newton iteration for .op point succeeded.

Date: Thu Jun 06 13:05:41 2024
Total elapsed time: 0.491 seconds.

tnom = 27
temp = 27
method = modified trap
totiter = 7749
traniter = 7731
tranpoints = 3221
accept = 2823
rejected = 398
matrix size = 219
fillins = 46
solver = Normal
Thread vector: 19.1/9.3[4] 5.1/3.9[4] 9.2/3.1[4] 0.7/1.8[1]  2592/500
Matrix Compiler1: 8.15 KB object code size  5.3/2.4/[0.7]
Matrix Compiler2: 15.85 KB object code size  2.8/3.5/[1.1]

