Circuit: * C:\Users\amodh\OneDrive\Desktop\working_memory notes\SPICEckts\LIFtest.asc

WARNING: Node N006 is floating.
WARNING: Node N009 is floating.
WARNING: Node N010 is floating.

Direct Newton iteration for .op point succeeded.

Date: Fri May 24 10:14:42 2024
Total elapsed time: 0.228 seconds.

tnom = 27
temp = 27
method = modified trap
totiter = 6041
traniter = 6012
tranpoints = 2185
accept = 1943
rejected = 242
matrix size = 119
fillins = 14
solver = Normal
Thread vector: 6.2/4.5[2] 1.4/2.2[1] 1.5/2.6[1] 0.3/2.8[1]  2592/500
Matrix Compiler1: 4.42 KB object code size  1.9/0.9/[0.3]
Matrix Compiler2: off  [1.1]/1.4/1.8

