Circuit: * C:\Users\amodh\OneDrive\Desktop\working_memory notes\SPICEckts\TempotronCircuit.asc

WARNING: Node N001 is floating.
WARNING: Node N006 is floating.
WARNING: Node VPRE is floating.
WARNING: Node N004 is floating.
WARNING: Node N007 is floating.

WARNING: Less than two connections to node N001.  This node is used by M6.
WARNING: Less than two connections to node N006.  This node is used by M5.
WARNING: Less than two connections to node N004.  This node is used by M8.
WARNING: Less than two connections to node N007.  This node is used by M7.
Warning: Pd = 0 is less than W.
Warning: Ps = 0 is less than W.
Warning: Pd = 0 is less than W.
Warning: Ps = 0 is less than W.
Warning: Pd = 0 is less than W.
Warning: Ps = 0 is less than W.
Warning: Pd = 0 is less than W.
Warning: Ps = 0 is less than W.
Direct Newton iteration failed to find .op point.  (Use ".option noopiter" to skip.)
Starting Gmin stepping
Gmin = 10
Gmin = 1.07374
Gmin = 0.115292
Gmin = 0.0123794
Gmin = 0.00132923
Gmin = 0.000142725
Gmin = 1.5325e-005
Gmin = 1.6455e-006
Gmin = 1.76685e-007
Gmin = 1.89714e-008
Gmin = 2.03704e-009
Gmin = 2.18725e-010
Gmin = 2.34854e-011
Gmin = 2.52173e-012
Gmin = 2.70769e-013
Gmin = 0
Gmin stepping succeeded in finding the operating point.


Date: Fri Jun 07 19:40:07 2024
Total elapsed time: 0.282 seconds.

tnom = 27
temp = 27
method = modified trap
totiter = 2517
traniter = 2110
tranpoints = 1051
accept = 1050
rejected = 1
matrix size = 41
fillins = 9
solver = Normal
Thread vector: 9.0/5.9[2] 4.3/4.5[1] 1.2/1.2[1] 0.1/1.6[1]  2592/500
Matrix Compiler1: 2.75 KB object code size  1.1/0.6/[0.2]
Matrix Compiler2: off  [0.4]/0.5/0.4

